@<TRIPOS>MOLECULE
CO2
    3     2     1     0     0
SMALL
bcc


@<TRIPOS>ATOM
      1 C           14.2970     3.1310    17.5470 c1       302 CO2       0.878000
      2 O1          13.4480     2.9160    16.7860 o        302 CO2      -0.439500
      3 O2          15.0740     3.3360    18.2870 o        302 CO2      -0.439500
@<TRIPOS>BOND
     1     1     2 2   
     2     1     3 2   
@<TRIPOS>SUBSTRUCTURE
     1 CO2         1 TEMP              0 ****  ****    0 ROOT
